scripts/a_powerproject_only_30bus_data.raw
@!IC, SBASE,REV,XFRRAT,NXFRAT,BASFRQ
1,   100.00, 34,     0,     1, 60.00     / PSS(R)E-34.3    THU, DEC 28 2023  14:42


GENERAL, THRSHZ=0.0001, PQBRAK=0.7, BLOWUP=5.0
GAUSS, ITMX=100, ACCP=1.6, ACCQ=1.6, ACCM=1.0, TOL=0.0001
NEWTON, ITMXN=20, ACCN=1.0, TOLN=0.1, VCTOLQ=0.1, VCTOLV=0.00001, DVLIM=0.99, NDVFCT=0.99
ADJUST, ADJTHR=0.005, ACCTAP=1.0, TAPLIM=0.05, SWVBND=100.0, MXTPSS=99, MXSWIM=10
TYSL, ITMXTY=20, ACCTY=1.0, TOLTY=0.00001
SOLVER, FDNS, ACTAPS=0, AREAIN=0, PHSHFT=0, DCTAPS=1, SWSHNT=1, FLATST=1, VARLIM=99, NONDIV=0
RATING, 1, "RATE1 ", "RATING SET 1                    "
RATING, 2, "RATE2 ", "RATING SET 2                    "
RATING, 3, "RATE3 ", "RATING SET 3                    "
RATING, 4, "RATE4 ", "RATING SET 4                    "
RATING, 5, "RATE5 ", "RATING SET 5                    "
RATING, 6, "RATE6 ", "RATING SET 6                    "
RATING, 7, "RATE7 ", "RATING SET 7                    "
RATING, 8, "RATE8 ", "RATING SET 8                    "
RATING, 9, "RATE9 ", "RATING SET 9                    "
RATING,10, "RATE10", "RATING SET 10                   "
RATING,11, "RATE11", "RATING SET 11                   "
RATING,12, "RATE12", "RATING SET 12                   "
0 / END OF SYSTEM-WIDE DATA, BEGIN BUS DATA
@!   I,'NAME        ', BASKV, IDE,AREA,ZONE,OWNER, VM,        VA,    NVHI,   NVLO,   EVHI,   EVLO
     1,'B1          ', 424.0000,3,   1,   1,   1,1.00000,   0.0000,1.10000,0.90000,1.10000,0.90000
     2,'B2          ', 418.0000,2,   1,   1,   1,1.00000,  -2.1425,1.10000,0.90000,1.10000,0.90000
     3,'B3          ', 401.3569,1,   1,   1,   1,0.98670,  -4.4261,1.10000,0.90000,1.10000,0.90000
     4,'B4          ', 396.4191,1,   1,   1,   1,0.98342,  -5.3025,1.10000,0.90000,1.10000,0.90000
     5,'B5          ', 404.0000,2,   1,   1,   1,1.00000,  -7.6586,1.10000,0.90000,1.10000,0.90000
     6,'B6          ', 391.7851,1,   1,   1,   1,0.98486,  -6.2179,1.10000,0.90000,1.10000,0.90000
     7,'B7          ', 391.7680,1,   1,   1,   1,0.98246,  -7.3435,1.10000,0.90000,1.10000,0.90000
     8,'B8          ', 404.0000,2,   1,   1,   1,0.99421,  -6.7040,1.10000,0.90000,1.10000,0.90000
     9,'B9          ', 378.3837,1,   1,   1,   1,0.98266,  -6.6688,1.10000,0.90000,1.10000,0.90000
    10,'B10         ', 352.0876,1,   1,   1,   1,0.94914,  -9.7896,1.10000,0.90000,1.10000,0.90000
    11,'B11         ', 432.8000,2,   1,   1,   1,1.00000,  -5.3860,1.10000,0.90000,1.10000,0.90000
    12,'B12         ', 399.5260,1,   1,   1,   1,0.97228,  -8.5962,1.10000,0.90000,1.10000,0.90000
    13,'B13         ', 428.4000,2,   1,   1,   1,1.00000,  -6.9460,1.10000,0.90000,1.10000,0.90000
    14,'B14         ', 377.9805,1,   1,   1,   1,0.95525,  -9.6486,1.10000,0.90000,1.10000,0.90000
    15,'B15         ', 363.3357,1,   1,   1,   1,0.94948,  -9.7331,1.10000,0.90000,1.10000,0.90000
    16,'B16         ', 350.2310,1,   1,   1,   1,0.95212,  -9.4688,1.10000,0.90000,1.10000,0.90000
    17,'B17         ', 343.8428,1,   1,   1,   1,0.94030, -10.0390,1.10000,0.90000,1.10000,0.90000
    18,'B18         ', 329.4573,1,   1,   1,   1,0.94001, -10.3633,1.10000,0.90000,1.10000,0.90000
    19,'B19         ', 315.9662,1,   1,   1,   1,0.93782, -10.5086,1.10000,0.90000,1.10000,0.90000
    20,'B20         ', 328.2256,1,   1,   1,   1,0.94258, -10.2409,1.10000,0.90000,1.10000,0.90000
    21,'B21         ', 332.5052,1,   1,   1,   1,0.93534, -10.2859,1.10000,0.90000,1.10000,0.90000
    22,'B22         ', 333.2763,1,   1,   1,   1,0.93590, -10.2550,1.10000,0.90000,1.10000,0.90000
    23,'B23         ', 323.3943,1,   1,   1,   1,0.93413, -10.2438,1.10000,0.90000,1.10000,0.90000
    24,'B24         ', 298.6544,1,   1,   1,   1,0.92293, -10.5167,1.10000,0.90000,1.10000,0.90000
    25,'B25         ', 318.8160,1,   1,   1,   1,0.92746, -10.2774,1.10000,0.90000,1.10000,0.90000
    26,'B26         ', 271.4346,1,   1,   1,   1,0.90799, -10.7843,1.10000,0.90000,1.10000,0.90000
    27,'B27         ', 357.0318,1,   1,   1,   1,0.93976,  -9.8085,1.10000,0.90000,1.10000,0.90000
    28,'B28         ', 384.3878,1,   1,   1,   1,0.98159,  -6.7811,1.10000,0.90000,1.10000,0.90000
    29,'B29         ', 291.8331,1,   1,   1,   1,0.92647, -11.3886,1.10000,0.90000,1.10000,0.90000
    30,'B30         ', 269.8891,1,   1,   1,   1,0.92746, -12.0110,1.10000,0.90000,1.10000,0.90000
0 / END OF BUS DATA, BEGIN LOAD DATA
@!   I,'ID',STAT,AREA,ZONE,      PL,        QL,        IP,        IQ,        YP,        YQ, OWNER,SCALE,INTRPT,  DGENP,     DGENQ, DGENF
     1,'1 ',   1,   1,   1,     0.000,     0.000,     0.000,     0.000,     0.000,     0.000,   1,    1,  0,     0.000,     0.000,   0
     2,'1 ',   1,   1,   1,    21.700,    12.700,     0.000,     0.000,     0.000,     0.000,   1,    1,  0,     0.000,     0.000,   0
     3,'1 ',   1,   1,   1,     2.400,     1.200,     0.000,     0.000,     0.000,     0.000,   1,    1,  0,     0.000,     0.000,   0
     4,'1 ',   1,   1,   1,     7.600,     1.600,     0.000,     0.000,     0.000,     0.000,   1,    1,  0,     0.000,     0.000,   0
     5,'1 ',   1,   1,   1,    94.200,    19.000,     0.000,     0.000,     0.000,     0.000,   1,    1,  0,     0.000,     0.000,   0
     6,'1 ',   1,   1,   1,     0.000,     0.000,     0.000,     0.000,     0.000,     0.000,   1,    1,  0,     0.000,     0.000,   0
     7,'1 ',   1,   1,   1,    22.800,    10.900,     0.000,     0.000,     0.000,     0.000,   1,    1,  0,     0.000,     0.000,   0
     8,'1 ',   1,   1,   1,    30.000,    30.000,     0.000,     0.000,     0.000,     0.000,   1,    1,  0,     0.000,     0.000,   0
     9,'1 ',   1,   1,   1,     0.000,     0.000,     0.000,     0.000,     0.000,     0.000,   1,    1,  0,     0.000,     0.000,   0
    10,'1 ',   1,   1,   1,     5.800,     2.000,     0.000,     0.000,     0.000,     0.000,   1,    1,  0,     0.000,     0.000,   0
    11,'1 ',   1,   1,   1,     0.000,     0.000,     0.000,     0.000,     0.000,     0.000,   1,    1,  0,     0.000,     0.000,   0
    12,'1 ',   1,   1,   1,    11.200,     7.500,     0.000,     0.000,     0.000,     0.000,   1,    1,  0,     0.000,     0.000,   0
    13,'1 ',   1,   1,   1,     0.000,     0.000,     0.000,     0.000,     0.000,     0.000,   1,    1,  0,     0.000,     0.000,   0
    14,'1 ',   1,   1,   1,     6.200,     1.600,     0.000,     0.000,     0.000,     0.000,   1,    1,  0,     0.000,     0.000,   0
    15,'1 ',   1,   1,   1,     8.200,     2.500,     0.000,     0.000,     0.000,     0.000,   1,    1,  0,     0.000,     0.000,   0
    16,'1 ',   1,   1,   1,     3.500,     1.800,     0.000,     0.000,     0.000,     0.000,   1,    1,  0,     0.000,     0.000,   0
    17,'1 ',   1,   1,   1,     9.000,     5.800,     0.000,     0.000,     0.000,     0.000,   1,    1,  0,     0.000,     0.000,   0
    18,'1 ',   1,   1,   1,     3.200,     0.900,     0.000,     0.000,     0.000,     0.000,   1,    1,  0,     0.000,     0.000,   0
    19,'1 ',   1,   1,   1,     9.500,     3.400,     0.000,     0.000,     0.000,     0.000,   1,    1,  0,     0.000,     0.000,   0
    20,'1 ',   1,   1,   1,     2.200,     0.700,     0.000,     0.000,     0.000,     0.000,   1,    1,  0,     0.000,     0.000,   0
    21,'1 ',   1,   1,   1,    17.500,    11.200,     0.000,     0.000,     0.000,     0.000,   1,    1,  0,     0.000,     0.000,   0
    22,'1 ',   1,   1,   1,     0.000,     0.000,     0.000,     0.000,     0.000,     0.000,   1,    1,  0,     0.000,     0.000,   0
    23,'1 ',   1,   1,   1,     3.200,     1.600,     0.000,     0.000,     0.000,     0.000,   1,    1,  0,     0.000,     0.000,   0
    24,'1 ',   1,   1,   1,     8.700,     6.700,     0.000,     0.000,     0.000,     0.000,   1,    1,  0,     0.000,     0.000,   0
    25,'1 ',   1,   1,   1,     0.000,     0.000,     0.000,     0.000,     0.000,     0.000,   1,    1,  0,     0.000,     0.000,   0
    26,'1 ',   1,   1,   1,     3.500,     2.300,     0.000,     0.000,     0.000,     0.000,   1,    1,  0,     0.000,     0.000,   0
    27,'1 ',   1,   1,   1,     0.000,     0.000,     0.000,     0.000,     0.000,     0.000,   1,    1,  0,     0.000,     0.000,   0
    28,'1 ',   1,   1,   1,     0.000,     0.000,     0.000,     0.000,     0.000,     0.000,   1,    1,  0,     0.000,     0.000,   0
    29,'1 ',   1,   1,   1,     2.400,     0.900,     0.000,     0.000,     0.000,     0.000,   1,    1,  0,     0.000,     0.000,   0
    30,'1 ',   1,   1,   1,    10.600,     1.900,     0.000,     0.000,     0.000,     0.000,   1,    1,  0,     0.000,     0.000,   0
0 / END OF LOAD DATA, BEGIN FIXED SHUNT DATA
@!   I,'ID',STATUS,  GL,        BL
0 / END OF FIXED SHUNT DATA, BEGIN GENERATOR DATA
@!   I,'ID',      PG,        QG,        QT,        QB,     VS,    IREG,     MBASE,     ZR,         ZX,         RT,         XT,     GTAP,STAT, RMPCT,      PT,        PB,    O1,    F1,  O2,    F2,  O3,    F3,  O4,    F4,WMOD,  WPF
     1,'1 ',    99.684,   -21.970,   250.000,   -20.000,1.00000,     0,   100.000, 0.00000E+0, 1.00000E+0, 0.00000E+0, 0.00000E+0,1.00000,1,  100.0,   200.000,    50.000,   1,1.0000
     2,'2 ',    80.000,    17.764,   100.000,   -20.000,1.00000,     0,   100.000, 0.00000E+0, 1.00000E+0, 0.00000E+0, 0.00000E+0,1.00000,1,  100.0,    80.000,    20.000,   1,1.0000
     5,'3 ',    50.000,    45.249,    80.000,   -15.000,1.00000,     0,   100.000, 0.00000E+0, 1.00000E+0, 0.00000E+0, 0.00000E+0,1.00000,1,  100.0,    50.000,    15.000,   1,1.0000
     8,'4 ',    20.000,    60.000,    60.000,   -15.000,1.00000,     0,   100.000, 0.00000E+0, 1.00000E+0, 0.00000E+0, 0.00000E+0,1.00000,1,  100.0,    35.000,    10.000,   1,1.0000
    11,'5 ',    20.000,    15.986,    50.000,   -10.000,1.00000,     0,   100.000, 0.00000E+0, 1.00000E+0, 0.00000E+0, 0.00000E+0,1.00000,1,  100.0,    30.000,    10.000,   1,1.0000
    13,'6 ',    20.000,    20.090,    60.000,   -15.000,1.00000,     0,   100.000, 0.00000E+0, 1.00000E+0, 0.00000E+0, 0.00000E+0,1.00000,1,  100.0,    40.000,    12.000,   1,1.0000
0 / END OF GENERATOR DATA, BEGIN BRANCH DATA
@!   I,     J,'CKT',     R,          X,         B,                    'N A M E'                 ,   RATE1,   RATE2,   RATE3,   RATE4,   RATE5,   RATE6,   RATE7,   RATE8,   RATE9,  RATE10,  RATE11,  RATE12,    GI,       BI,       GJ,       BJ,STAT,MET,  LEN,  O1,  F1,    O2,  F2,    O3,  F3,    O4,  F4
     1,     2,'1 ', 1.92000E-2, 5.75000E-2,   0.02640,'                                        ',  130.00,  130.00,  130.00,    0.00,    0.00,    0.00,    0.00,    0.00,    0.00,    0.00,    0.00,    0.00,  0.00000,  0.00000,  0.00000,  0.00000,1,1,  42.00,   1,1.0000
     1,     3,'1 ', 4.52000E-2, 1.85200E-1,   0.02040,'                                        ',  130.00,  130.00,  130.00,    0.00,    0.00,    0.00,    0.00,    0.00,    0.00,    0.00,    0.00,    0.00,  0.00000,  0.00000,  0.00000,  0.00000,1,1, 274.00,   1,1.0000
     2,     4,'1 ', 5.70000E-2, 1.73700E-1,   0.01840,'                                        ',   65.00,   65.00,   65.00,    0.00,    0.00,    0.00,    0.00,    0.00,    0.00,    0.00,    0.00,    0.00,  0.00000,  0.00000,  0.00000,  0.00000,1,1, 278.00,   1,1.0000
     2,     5,'1 ', 4.72000E-2, 1.98300E-1,   0.02090,'                                        ',  130.00,  130.00,  130.00,    0.00,    0.00,    0.00,    0.00,    0.00,    0.00,    0.00,    0.00,    0.00,  0.00000,  0.00000,  0.00000,  0.00000,1,1,  51.00,   1,1.0000
     2,     6,'1 ', 5.81000E-2, 1.76300E-1,   0.01870,'                                        ',   65.00,   65.00,   65.00,    0.00,    0.00,    0.00,    0.00,    0.00,    0.00,    0.00,    0.00,    0.00,  0.00000,  0.00000,  0.00000,  0.00000,1,1, 241.00,   1,1.0000
     3,     4,'1 ', 1.32000E-2, 3.79000E-2,   0.00420,'                                        ',  130.00,  130.00,  130.00,    0.00,    0.00,    0.00,    0.00,    0.00,    0.00,    0.00,    0.00,    0.00,  0.00000,  0.00000,  0.00000,  0.00000,1,1,  80.00,   1,1.0000
     4,     6,'1 ', 1.19000E-2, 4.14000E-2,   0.00450,'                                        ',   90.00,   90.00,   90.00,    0.00,    0.00,    0.00,    0.00,    0.00,    0.00,    0.00,    0.00,    0.00,  0.00000,  0.00000,  0.00000,  0.00000,1,1, 112.00,   1,1.0000
     4,    12,'1 ', 0.00000E+0, 2.56000E-1,   0.00000,'                                        ',   65.00,   65.00,   65.00,    0.00,    0.00,    0.00,    0.00,    0.00,    0.00,    0.00,    0.00,    0.00,  0.00000,  0.00000,  0.00000,  0.00000,1,1,  27.00,   1,1.0000
     5,     7,'1 ', 4.60000E-2, 1.16000E-1,   0.01020,'                                        ',   70.00,   70.00,   70.00,    0.00,    0.00,    0.00,    0.00,    0.00,    0.00,    0.00,    0.00,    0.00,  0.00000,  0.00000,  0.00000,  0.00000,1,1, 173.00,   1,1.0000
     6,     7,'1 ', 2.67000E-2, 8.20000E-2,   0.00850,'                                        ',  130.00,  130.00,  130.00,    0.00,    0.00,    0.00,    0.00,    0.00,    0.00,    0.00,    0.00,    0.00,  0.00000,  0.00000,  0.00000,  0.00000,1,1,  31.00,   1,1.0000
     6,     8,'1 ', 1.20000E-2, 4.20000E-2,   0.00450,'                                        ',   32.00,   32.00,   32.00,    0.00,    0.00,    0.00,    0.00,    0.00,    0.00,    0.00,    0.00,    0.00,  0.00000,  0.00000,  0.00000,  0.00000,1,1, 216.00,   1,1.0000
     6,     9,'1 ', 0.00000E+0, 2.08000E-1,   0.00000,'                                        ',   65.00,   65.00,   65.00,    0.00,    0.00,    0.00,    0.00,    0.00,    0.00,    0.00,    0.00,    0.00,  0.00000,  0.00000,  0.00000,  0.00000,1,1, 194.00,   1,1.0000
     6,    10,'1 ', 0.00000E+0, 5.56000E-1,   0.00000,'                                        ',   32.00,   32.00,   32.00,    0.00,    0.00,    0.00,    0.00,    0.00,    0.00,    0.00,    0.00,    0.00,  0.00000,  0.00000,  0.00000,  0.00000,1,1, 165.00,   1,1.0000
     6,    28,'1 ', 1.69000E-2, 5.99000E-2,   0.00650,'                                        ',   32.00,   32.00,   32.00,    0.00,    0.00,    0.00,    0.00,    0.00,    0.00,    0.00,    0.00,    0.00,  0.00000,  0.00000,  0.00000,  0.00000,1,1, 139.00,   1,1.0000
     8,    28,'1 ', 6.36000E-2, 2.00000E-1,   0.02140,'                                        ',   32.00,   32.00,   32.00,    0.00,    0.00,    0.00,    0.00,    0.00,    0.00,    0.00,    0.00,    0.00,  0.00000,  0.00000,  0.00000,  0.00000,1,1, 193.00,   1,1.0000
     9,    10,'1 ', 0.00000E+0, 2.08000E-1,   0.00000,'                                        ',   65.00,   65.00,   65.00,    0.00,    0.00,    0.00,    0.00,    0.00,    0.00,    0.00,    0.00,    0.00,  0.00000,  0.00000,  0.00000,  0.00000,1,1,  96.00,   1,1.0000
     9,    11,'1 ', 0.00000E+0, 1.10000E-1,   0.00000,'                                        ',   65.00,   65.00,   65.00,    0.00,    0.00,    0.00,    0.00,    0.00,    0.00,    0.00,    0.00,    0.00,  0.00000,  0.00000,  0.00000,  0.00000,1,1,  61.00,   1,1.0000
    10,    17,'1 ', 9.36000E-2, 2.09000E-1,   0.00000,'                                        ',   32.00,   32.00,   32.00,    0.00,    0.00,    0.00,    0.00,    0.00,    0.00,    0.00,    0.00,    0.00,  0.00000,  0.00000,  0.00000,  0.00000,1,1, 116.00,   1,1.0000
    10,    20,'1 ', 3.24000E-2, 8.45000E-2,   0.00000,'                                        ',   32.00,   32.00,   32.00,    0.00,    0.00,    0.00,    0.00,    0.00,    0.00,    0.00,    0.00,    0.00,  0.00000,  0.00000,  0.00000,  0.00000,1,1,  65.00,   1,1.0000
    10,    21,'1 ', 3.48000E-2, 7.49000E-2,   0.00000,'                                        ',   32.00,   32.00,   32.00,    0.00,    0.00,    0.00,    0.00,    0.00,    0.00,    0.00,    0.00,    0.00,  0.00000,  0.00000,  0.00000,  0.00000,1,1, 220.00,   1,1.0000
    10,    22,'1 ', 7.27000E-2, 1.49900E-1,   0.00000,'                                        ',   32.00,   32.00,   32.00,    0.00,    0.00,    0.00,    0.00,    0.00,    0.00,    0.00,    0.00,    0.00,  0.00000,  0.00000,  0.00000,  0.00000,1,1, 204.00,   1,1.0000
    12,    13,'1 ', 0.00000E+0, 1.40000E-1,   0.00000,'                                        ',   65.00,   65.00,   65.00,    0.00,    0.00,    0.00,    0.00,    0.00,    0.00,    0.00,    0.00,    0.00,  0.00000,  0.00000,  0.00000,  0.00000,1,1,  19.00,   1,1.0000
    12,    14,'1 ', 1.23100E-1, 2.55900E-1,   0.00000,'                                        ',   32.00,   32.00,   32.00,    0.00,    0.00,    0.00,    0.00,    0.00,    0.00,    0.00,    0.00,    0.00,  0.00000,  0.00000,  0.00000,  0.00000,1,1, 228.00,   1,1.0000
    12,    15,'1 ', 6.62000E-2, 1.30400E-1,   0.00000,'                                        ',   32.00,   32.00,   32.00,    0.00,    0.00,    0.00,    0.00,    0.00,    0.00,    0.00,    0.00,    0.00,  0.00000,  0.00000,  0.00000,  0.00000,1,1, 271.00,   1,1.0000
    12,    16,'1 ', 9.45000E-2, 1.98700E-1,   0.00000,'                                        ',   32.00,   32.00,   32.00,    0.00,    0.00,    0.00,    0.00,    0.00,    0.00,    0.00,    0.00,    0.00,  0.00000,  0.00000,  0.00000,  0.00000,1,1,  99.00,   1,1.0000
    14,    15,'1 ', 2.21000E-1, 1.99700E-1,   0.00000,'                                        ',   16.00,   16.00,   16.00,    0.00,    0.00,    0.00,    0.00,    0.00,    0.00,    0.00,    0.00,    0.00,  0.00000,  0.00000,  0.00000,  0.00000,1,1, 149.00,   1,1.0000
    15,    18,'1 ', 1.07000E-1, 2.18500E-1,   0.00000,'                                        ',   16.00,   16.00,   16.00,    0.00,    0.00,    0.00,    0.00,    0.00,    0.00,    0.00,    0.00,    0.00,  0.00000,  0.00000,  0.00000,  0.00000,1,1,  37.00,   1,1.0000
    15,    23,'1 ', 1.00000E-1, 2.02000E-1,   0.00000,'                                        ',   16.00,   16.00,   16.00,    0.00,    0.00,    0.00,    0.00,    0.00,    0.00,    0.00,    0.00,    0.00,  0.00000,  0.00000,  0.00000,  0.00000,1,1, 135.00,   1,1.0000
    16,    17,'1 ', 8.24000E-2, 1.93200E-1,   0.00000,'                                        ',   16.00,   16.00,   16.00,    0.00,    0.00,    0.00,    0.00,    0.00,    0.00,    0.00,    0.00,    0.00,  0.00000,  0.00000,  0.00000,  0.00000,1,1, 155.00,   1,1.0000
    18,    19,'1 ', 6.39000E-2, 1.29200E-1,   0.00000,'                                        ',   16.00,   16.00,   16.00,    0.00,    0.00,    0.00,    0.00,    0.00,    0.00,    0.00,    0.00,    0.00,  0.00000,  0.00000,  0.00000,  0.00000,1,1, 230.00,   1,1.0000
    19,    20,'1 ', 3.40000E-2, 6.80000E-2,   0.00000,'                                        ',   32.00,   32.00,   32.00,    0.00,    0.00,    0.00,    0.00,    0.00,    0.00,    0.00,    0.00,    0.00,  0.00000,  0.00000,  0.00000,  0.00000,1,1, 187.00,   1,1.0000
    21,    22,'1 ', 1.16000E-2, 2.36000E-2,   0.00000,'                                        ',   32.00,   32.00,   32.00,    0.00,    0.00,    0.00,    0.00,    0.00,    0.00,    0.00,    0.00,    0.00,  0.00000,  0.00000,  0.00000,  0.00000,1,1,  67.00,   1,1.0000
    22,    24,'1 ', 1.15000E-1, 1.79000E-1,   0.00000,'                                        ',   16.00,   16.00,   16.00,    0.00,    0.00,    0.00,    0.00,    0.00,    0.00,    0.00,    0.00,    0.00,  0.00000,  0.00000,  0.00000,  0.00000,1,1, 155.00,   1,1.0000
    23,    24,'1 ', 1.32000E-1, 2.70000E-1,   0.00000,'                                        ',   16.00,   16.00,   16.00,    0.00,    0.00,    0.00,    0.00,    0.00,    0.00,    0.00,    0.00,    0.00,  0.00000,  0.00000,  0.00000,  0.00000,1,1, 138.00,   1,1.0000
    24,    25,'1 ', 1.88500E-1, 3.29200E-1,   0.00000,'                                        ',   16.00,   16.00,   16.00,    0.00,    0.00,    0.00,    0.00,    0.00,    0.00,    0.00,    0.00,    0.00,  0.00000,  0.00000,  0.00000,  0.00000,1,1, 240.00,   1,1.0000
    25,    26,'1 ', 2.54400E-1, 3.80000E-1,   0.00000,'                                        ',   16.00,   16.00,   16.00,    0.00,    0.00,    0.00,    0.00,    0.00,    0.00,    0.00,    0.00,    0.00,  0.00000,  0.00000,  0.00000,  0.00000,1,1, 119.00,   1,1.0000
    25,    27,'1 ', 1.09300E-1, 2.08700E-1,   0.00000,'                                        ',   16.00,   16.00,   16.00,    0.00,    0.00,    0.00,    0.00,    0.00,    0.00,    0.00,    0.00,    0.00,  0.00000,  0.00000,  0.00000,  0.00000,1,1, 234.00,   1,1.0000
    27,    28,'1 ', 2.19800E-1, 4.15300E-1,   0.00000,'                                        ',   16.00,   16.00,   16.00,    0.00,    0.00,    0.00,    0.00,    0.00,    0.00,    0.00,    0.00,    0.00,  0.00000,  0.00000,  0.00000,  0.00000,1,1, 192.00,   1,1.0000
    27,    29,'1 ', 3.20200E-1, 6.02700E-1,   0.00000,'                                        ',   16.00,   16.00,   16.00,    0.00,    0.00,    0.00,    0.00,    0.00,    0.00,    0.00,    0.00,    0.00,  0.00000,  0.00000,  0.00000,  0.00000,1,1, 238.00,   1,1.0000
    27,    30,'1 ', 0.00000E+0, 3.69000E-1,   0.00000,'                                        ',   65.00,   65.00,   65.00,    0.00,    0.00,    0.00,    0.00,    0.00,    0.00,    0.00,    0.00,    0.00,  0.00000,  0.00000,  0.00000,  0.00000,1,1, 162.00,   1,1.0000
    29,    30,'1 ', 2.39900E-1, 4.53300E-1,   0.00000,'                                        ',   16.00,   16.00,   16.00,    0.00,    0.00,    0.00,    0.00,    0.00,    0.00,    0.00,    0.00,    0.00,  0.00000,  0.00000,  0.00000,  0.00000,1,1, 111.00,   1,1.0000
0 / END OF BRANCH DATA, BEGIN SYSTEM SWITCHING DEVICE DATA
@!   I,     J,'CKT',          X,   RATE1,   RATE2,   RATE3,   RATE4,   RATE5,   RATE6,   RATE7,   RATE8,   RATE9,  RATE10,  RATE11,  RATE12, STAT,NSTAT,  MET,STYPE,'NAME'
0 / END OF SYSTEM SWITCHING DEVICE DATA, BEGIN TRANSFORMER DATA
@!   I,     J,     K,'CKT',CW,CZ,CM,    MAG1,       MAG2,NMETR,               'N A M E',               STAT,O1,  F1,    O2,  F2,    O3,  F3,    O4,  F4,     'VECGRP', ZCOD
@!   R1-2,       X1-2,   SBASE1-2,     R2-3,       X2-3,   SBASE2-3,     R3-1,       X3-1,   SBASE3-1, VMSTAR,   ANSTAR
@!WINDV1,  NOMV1,    ANG1,  RATE1-1,  RATE1-2,  RATE1-3,  RATE1-4,  RATE1-5,  RATE1-6,  RATE1-7,  RATE1-8,  RATE1-9, RATE1-10, RATE1-11, RATE1-12,COD1,CONT1,   RMA1,    RMI1,    VMA1,    VMI1, NTP1,TAB1,  CR1,     CX1,   CNXA1
@!WINDV2,  NOMV2,    ANG2,  RATE2-1,  RATE2-2,  RATE2-3,  RATE2-4,  RATE2-5,  RATE2-6,  RATE2-7,  RATE2-8,  RATE2-9, RATE2-10, RATE2-11, RATE2-12,COD2,CONT2,   RMA2,    RMI2,    VMA2,    VMI2, NTP2,TAB2,  CR2,     CX2,   CNXA2
@!WINDV3,  NOMV3,    ANG3,  RATE3-1,  RATE3-2,  RATE3-3,  RATE3-4,  RATE3-5,  RATE3-6,  RATE3-7,  RATE3-8,  RATE3-9, RATE3-10, RATE3-11, RATE3-12,COD3,CONT3,   RMA3,    RMI3,    VMA3,    VMI3, NTP3,TAB3,  CR3,     CX3,   CNXA3
     4,    12,     0,'2 ', 1, 1, 1, 0.00000E+0, 0.00000E+0,2,'                                        ',1,   1,1.0000,   0,1.0000,   0,1.0000,   0,1.0000,'            '
 0.00000E+0, 1.01290E+0,   100.00
1.00000,   0.000,   0.000,     0.00,     0.00,     0.00,     0.00,     0.00,     0.00,     0.00,     0.00,     0.00,     0.00,     0.00,     0.00, 0,      0, 1.10000, 0.90000, 1.10000, 0.90000,  33, 0, 0.00000, 0.00000,  0.000
1.00000,   0.000
     6,     9,     0,'2 ', 1, 1, 1, 0.00000E+0, 0.00000E+0,2,'                                        ',1,   1,1.0000,   0,1.0000,   0,1.0000,   0,1.0000,'            '
 0.00000E+0, 1.01550E+0,   100.00
1.00000,   0.000,   0.000,     0.00,     0.00,     0.00,     0.00,     0.00,     0.00,     0.00,     0.00,     0.00,     0.00,     0.00,     0.00, 0,      0, 1.10000, 0.90000, 1.10000, 0.90000,  33, 0, 0.00000, 0.00000,  0.000
1.00000,   0.000
     6,    10,     0,'2 ', 1, 1, 1, 0.00000E+0, 0.00000E+0,2,'                                        ',1,   1,1.0000,   0,1.0000,   0,1.0000,   0,1.0000,'            '
 0.00000E+0, 9.62900E-1,   100.00
1.00000,   0.000,   0.000,     0.00,     0.00,     0.00,     0.00,     0.00,     0.00,     0.00,     0.00,     0.00,     0.00,     0.00,     0.00, 0,      0, 1.10000, 0.90000, 1.10000, 0.90000,  33, 0, 0.00000, 0.00000,  0.000
1.00000,   0.000
    28,    27,     0,'2 ', 1, 1, 1, 0.00000E+0, 0.00000E+0,2,'                                        ',1,   1,1.0000,   0,1.0000,   0,1.0000,   0,1.0000,'            '
 0.00000E+0, 9.58100E-1,   100.00
1.00000,   0.000,   0.000,     0.00,     0.00,     0.00,     0.00,     0.00,     0.00,     0.00,     0.00,     0.00,     0.00,     0.00,     0.00, 0,      0, 1.10000, 0.90000, 1.10000, 0.90000,  33, 0, 0.00000, 0.00000,  0.000
1.00000,   0.000
0 / END OF TRANSFORMER DATA, BEGIN AREA DATA
@! I,   ISW,     PDES,      PTOL,    'ARNAME'
0 / END OF AREA DATA, BEGIN TWO-TERMINAL DC DATA
@!  'NAME',   MDC,     RDC,      SETVL,     VSCHD,     VCMOD,     RCOMP,    DELTI,METER    DCVMIN,CCCITMX, CCCACC
@! IPR,NBR,ANMXR,ANMNR,   RCR,    XCR,  EBASR,  TRR,    TAPR,   TMXR,   TMNR,   STPR,    ICR,   IFR,   ITR,'IDR', XCAPR
@! IPI,NBI,ANMXI,ANMNI,   RCI,    XCI,  EBASI,  TRI,    TAPI,   TMXI,   TMNI,   STPI,    ICI,   IFI,   ITI,'IDI', XCAPI
0 / END OF TWO-TERMINAL DC DATA, BEGIN VSC DC LINE DATA
@!  'NAME',   MDC,     RDC,   O1,  F1,    O2,  F2,    O3,  F3,    O4,  F4
@!IBUS,TYPE,MODE,     DCSET,   ACSET,     ALOSS,     BLOSS,   MINLOSS,     SMAX,      IMAX,   PWF,        MAXQ,      MINQ, REMOT,  RMPCT
0 / END OF VSC DC LINE DATA, BEGIN IMPEDANCE CORRECTION DATA
@!I,   T1,    Re(F1),  Im(F1),    T2,    Re(F2),  Im(F2),    T3,    Re(F3),  Im(F3),    T4,    Re(F4),  Im(F4),    T5,    Re(F5),  Im(F5),    T6,    Re(F6),  Im(F6)
@!     T7,    Re(F7),  Im(F7),    T8,    Re(F8),  Im(F8),    T9,    Re(F9),  Im(F9),    T10,  Re(F10), Im(F10),    T11,  Re(F11), Im(F11),    T12,  Re(F12), Im(F12)
@!      ...
0 / END OF IMPEDANCE CORRECTION DATA, BEGIN MULTI-TERMINAL DC DATA
@!  'NAME',    NCONV,NDCBS,NDCLN,  MDC, VCONV,     VCMOD, VCONVN
@!  IB, N,ANGMX,ANGMN,    RC,      XC,    EBAS,   TR,    TAP,    TPMX,   TPMN,   TSTP,     SETVL,   DCPF,    MARG,CNVCOD
@!IDC, IB,AREA,ZONE,   'DCNAME',  IDC2,   RGRND,OWNER
@!IDC,JDC,'DCCKT',MET,   RDC,        LDC
0 / END OF MULTI-TERMINAL DC DATA, BEGIN MULTI-SECTION LINE DATA
@!   I,     J,'ID',MET,DUM1,  DUM2,  DUM3,  DUM4,  DUM5,  DUM6,  DUM7,  DUM8,  DUM9
0 / END OF MULTI-SECTION LINE DATA, BEGIN ZONE DATA
@! I,   'ZONAME'
0 / END OF ZONE DATA, BEGIN INTER-AREA TRANSFER DATA
@!ARFROM,ARTO,'TRID', PTRAN
0 / END OF INTER-AREA TRANSFER DATA, BEGIN OWNER DATA
@! I,   'OWNAME'
0 / END OF OWNER DATA, BEGIN FACTS DEVICE DATA
@!  'NAME',         I,     J,MODE,   PDES,      QDES,  VSET,      SHMX,      TRMX,   VTMN,   VTMX,   VSMX,      IMX,     LINX,   RMPCT,OWNER,    SET1,      SET2,VSREF, REMOT,   'MNAME'
0 / END OF FACTS DEVICE DATA, BEGIN SWITCHED SHUNT DATA
@!  I,MODSW,ADJM,ST, VSWHI,  VSWLO, SWREM,  RMPCT,   'RMIDNT',      BINIT,N1,     B1, N2,     B2, N3,     B3, N4,     B4, N5,     B5, N6,     B6, N7,     B7, N8,     B8
0 / END OF SWITCHED SHUNT DATA, BEGIN GNE DATA
@!  'NAME',        'MODEL',     NTERM,BUS1...BUSNTERM,NREAL,NINTG,NCHAR
@!ST,OWNER,NMETR
@! REAL1...REAL(MIN(10,NREAL))
@! INTG1...INTG(MIN(10,NINTG))
@! CHAR1...CHAR(MIN(10,NCHAR))
0 / END OF GNE DATA, BEGIN INDUCTION MACHINE DATA
@!   I,'ID',ST,SC,DC,AREA,ZONE,OWNER,TC,BC,  MBASE, RATEKV,PC,  PSET,      H,       A,       B,       D,       E,     RA,        XA,        XM,        R1,        X1,        R2,        X2,        X3,       E1,    SE1,   E2,    SE2,   IA1,   IA2, XAMULT
0 / END OF INDUCTION MACHINE DATA, BEGIN SUBSTATION DATA
0 / END OF SUBSTATION DATA
Q
